8

C 0.7619869076 -0.0000132034 0.0001567238
C -0.7619834031 0.0000135544 0.0001158068
H 1.1577674263 1.0079004058 0.1355608856
H 1.1577405204 -0.6216741305 0.8049684999
H 1.1577826326 -0.3862052542 -0.9406577262
H -1.1577747754 -1.0078114866 -0.1359724009
H -1.1577258279 0.3864156703 0.9408088039
H -1.1577897666 0.6213809652 -0.8049553202
